uncertain_grid_restoration/dss/ieee69/Lines.dss
! IEEE 69-Bus System Lines

New Line.L1 Bus1=1 Bus2=2 Phases=3 R1=0.0005 X1=0.0012 Length=1 Units=km
New Line.L2 Bus1=2 Bus2=3 Phases=3 R1=0.0005 X1=0.0012 Length=1 Units=km
New Line.L3 Bus1=3 Bus2=4 Phases=3 R1=0.0015 X1=0.0036 Length=1 Units=km
New Line.L4 Bus1=4 Bus2=5 Phases=3 R1=0.0251 X1=0.0294 Length=1 Units=km
New Line.L5 Bus1=5 Bus2=6 Phases=3 R1=0.3660 X1=0.1864 Length=1 Units=km
New Line.L6 Bus1=6 Bus2=7 Phases=3 R1=0.3811 X1=0.1941 Length=1 Units=km
New Line.L7 Bus1=7 Bus2=8 Phases=3 R1=0.0922 X1=0.0470 Length=1 Units=km
New Line.L8 Bus1=8 Bus2=9 Phases=3 R1=0.0493 X1=0.0251 Length=1 Units=km
New Line.L9 Bus1=9 Bus2=10 Phases=3 R1=0.8190 X1=0.2707 Length=1 Units=km
New Line.L10 Bus1=10 Bus2=11 Phases=3 R1=0.1872 X1=0.0619 Length=1 Units=km
New Line.L11 Bus1=11 Bus2=12 Phases=3 R1=0.7114 X1=0.2351 Length=1 Units=km
New Line.L12 Bus1=12 Bus2=13 Phases=3 R1=1.0300 X1=0.3400 Length=1 Units=km
New Line.L13 Bus1=13 Bus2=14 Phases=3 R1=1.0440 X1=0.3450 Length=1 Units=km
New Line.L14 Bus1=14 Bus2=15 Phases=3 R1=1.0580 X1=0.3496 Length=1 Units=km
New Line.L15 Bus1=15 Bus2=16 Phases=3 R1=0.1966 X1=0.0650 Length=1 Units=km
New Line.L16 Bus1=16 Bus2=17 Phases=3 R1=0.3744 X1=0.1238 Length=1 Units=km
New Line.L17 Bus1=17 Bus2=18 Phases=3 R1=0.0047 X1=0.0016 Length=1 Units=km
New Line.L18 Bus1=18 Bus2=19 Phases=3 R1=0.3276 X1=0.1083 Length=1 Units=km
New Line.L19 Bus1=19 Bus2=20 Phases=3 R1=0.2106 X1=0.0690 Length=1 Units=km
New Line.L20 Bus1=20 Bus2=21 Phases=3 R1=0.3416 X1=0.1129 Length=1 Units=km
New Line.L21 Bus1=21 Bus2=22 Phases=3 R1=0.0140 X1=0.0046 Length=1 Units=km
New Line.L22 Bus1=22 Bus2=23 Phases=3 R1=0.1591 X1=0.0526 Length=1 Units=km
New Line.L23 Bus1=23 Bus2=24 Phases=3 R1=0.2820 X1=0.0932 Length=1 Units=km
New Line.L24 Bus1=24 Bus2=25 Phases=3 R1=0.2820 X1=0.0932 Length=1 Units=km
New Line.L25 Bus1=25 Bus2=26 Phases=3 R1=0.0900 X1=0.0320 Length=1 Units=km
New Line.L26 Bus1=26 Bus2=27 Phases=3 R1=0.0900 X1=0.0320 Length=1 Units=km
New Line.L27 Bus1=3 Bus2=28 Phases=3 R1=0.0044 X1=0.0108 Length=1 Units=km
New Line.L28 Bus1=28 Bus2=29 Phases=3 R1=0.0640 X1=0.1565 Length=1 Units=km
New Line.L29 Bus1=29 Bus2=30 Phases=3 R1=0.3978 X1=0.1315 Length=1 Units=km
New Line.L30 Bus1=30 Bus2=31 Phases=3 R1=0.0702 X1=0.0232 Length=1 Units=km
New Line.L31 Bus1=31 Bus2=32 Phases=3 R1=0.3510 X1=0.1160 Length=1 Units=km
New Line.L32 Bus1=32 Bus2=33 Phases=3 R1=0.8390 X1=0.2816 Length=1 Units=km
New Line.L33 Bus1=33 Bus2=34 Phases=3 R1=1.7080 X1=0.5646 Length=1 Units=km
New Line.L34 Bus1=34 Bus2=35 Phases=3 R1=1.4740 X1=0.4873 Length=1 Units=km
New Line.L35 Bus1=4 Bus2=36 Phases=3 R1=0.0044 X1=0.0108 Length=1 Units=km
New Line.L36 Bus1=36 Bus2=37 Phases=3 R1=0.0640 X1=0.1565 Length=1 Units=km
New Line.L37 Bus1=37 Bus2=38 Phases=3 R1=0.1053 X1=0.1230 Length=1 Units=km
New Line.L38 Bus1=38 Bus2=39 Phases=3 R1=0.0304 X1=0.0355 Length=1 Units=km
New Line.L39 Bus1=39 Bus2=40 Phases=3 R1=0.0018 X1=0.0021 Length=1 Units=km
New Line.L40 Bus1=40 Bus2=41 Phases=3 R1=0.7283 X1=0.8509 Length=1 Units=km
New Line.L41 Bus1=41 Bus2=42 Phases=3 R1=0.3100 X1=0.3623 Length=1 Units=km
New Line.L42 Bus1=42 Bus2=43 Phases=3 R1=0.0410 X1=0.0478 Length=1 Units=km
New Line.L43 Bus1=43 Bus2=44 Phases=3 R1=0.0092 X1=0.0116 Length=1 Units=km
New Line.L44 Bus1=44 Bus2=45 Phases=3 R1=0.1089 X1=0.1373 Length=1 Units=km
New Line.L45 Bus1=45 Bus2=46 Phases=3 R1=0.0009 X1=0.0012 Length=1 Units=km
New Line.L46 Bus1=8 Bus2=47 Phases=3 R1=0.0830 X1=0.0207 Length=1 Units=km
New Line.L47 Bus1=47 Bus2=48 Phases=3 R1=0.1472 X1=0.0368 Length=1 Units=km
New Line.L48 Bus1=48 Bus2=49 Phases=3 R1=0.0080 X1=0.0020 Length=1 Units=km
New Line.L49 Bus1=49 Bus2=50 Phases=3 R1=0.1636 X1=0.0409 Length=1 Units=km
New Line.L50 Bus1=9 Bus2=51 Phases=3 R1=0.1500 X1=0.0375 Length=1 Units=km
New Line.L51 Bus1=51 Bus2=52 Phases=3 R1=0.5180 X1=0.1295 Length=1 Units=km
New Line.L52 Bus1=11 Bus2=53 Phases=3 R1=0.2024 X1=0.0669 Length=1 Units=km
New Line.L53 Bus1=53 Bus2=54 Phases=3 R1=0.2842 X1=0.0939 Length=1 Units=km
New Line.L54 Bus1=54 Bus2=55 Phases=3 R1=0.2813 X1=0.0930 Length=1 Units=km
New Line.L55 Bus1=55 Bus2=56 Phases=3 R1=1.5900 X1=0.5337 Length=1 Units=km
New Line.L56 Bus1=56 Bus2=57 Phases=3 R1=0.7837 X1=0.2630 Length=1 Units=km
New Line.L57 Bus1=57 Bus2=58 Phases=3 R1=0.3042 X1=0.1006 Length=1 Units=km
New Line.L58 Bus1=58 Bus2=59 Phases=3 R1=0.3861 X1=0.1172 Length=1 Units=km
New Line.L59 Bus1=59 Bus2=60 Phases=3 R1=0.5075 X1=0.2585 Length=1 Units=km
New Line.L60 Bus1=60 Bus2=61 Phases=3 R1=0.0974 X1=0.0496 Length=1 Units=km
New Line.L61 Bus1=61 Bus2=62 Phases=3 R1=0.1450 X1=0.0738 Length=1 Units=km
New Line.L62 Bus1=62 Bus2=63 Phases=3 R1=0.7105 X1=0.3619 Length=1 Units=km
New Line.L63 Bus1=63 Bus2=64 Phases=3 R1=1.0410 X1=0.5302 Length=1 Units=km
New Line.L64 Bus1=64 Bus2=65 Phases=3 R1=0.7105 X1=0.3619 Length=1 Units=km
New Line.L65 Bus1=12 Bus2=66 Phases=3 R1=0.2024 X1=0.0669 Length=1 Units=km
New Line.L66 Bus1=66 Bus2=67 Phases=3 R1=0.2842 X1=0.0939 Length=1 Units=km
New Line.L67 Bus1=67 Bus2=68 Phases=3 R1=0.2813 X1=0.0930 Length=1 Units=km
New Line.L68 Bus1=68 Bus2=69 Phases=3 R1=1.5900 X1=0.5337 Length=1 Units=km
